 &PTRACERS_PARM01
 PTRACERS_numInUse=1,
 PTRACERS_Iter0= 0,
#
# tracer - microplastics
 PTRACERS_advScheme(1)=4,
 PTRACERS_diffKh(1)=1.0e-6,
 PTRACERS_diffKr(1)=1.0e-6, 
 PTRACERS_initialFile(1)='p_init.bin',

 PTRACERS_advScheme(2)=3,
 PTRACERS_diffKh(2)=1.0e-6,
 PTRACERS_diffKr(2)=1.0e-6, 
 PTRACERS_initialFile(2)='p_init2.bin',

&
