# Packages
 &PACKAGES
 usePTRACERS=.TRUE.,
 useDiagnostics=.TRUE.,
 useOffLine=.TRUE., 
&
