 &PTRACERS_PARM01
 PTRACERS_numInUse=1,
 PTRACERS_Iter0= 0,
#
# tracer - microplastics
 PTRACERS_advScheme(1)=33,
 PTRACERS_diffKh(1)=4.E-5,
 PTRACERS_diffKr(1)=4.E-5, 
 PTRACERS_initialFile(1)='p_init.bin',
 PTRACERS_names(1)='plastic1', 
&
